Version 4
SHEET 1 1268 1268
WIRE -928 0 -1040 0
WIRE -800 0 -928 0
WIRE -640 0 -800 0
WIRE -448 0 -640 0
WIRE -448 64 -448 0
WIRE -928 80 -928 64
WIRE -928 80 -1040 80
WIRE -800 80 -800 0
WIRE -640 80 -640 0
WIRE 64 80 -112 80
WIRE 176 80 64 80
WIRE 416 80 176 80
WIRE 544 80 416 80
WIRE -928 96 -928 80
WIRE 64 96 64 80
WIRE 848 96 768 96
WIRE 960 96 928 96
WIRE 176 112 176 80
WIRE 416 112 416 80
WIRE 544 128 544 80
WIRE 960 128 960 96
WIRE -448 144 -448 128
WIRE -448 144 -544 144
WIRE -112 176 -112 80
WIRE 368 192 352 192
WIRE -1184 208 -1392 208
WIRE -896 208 -1184 208
WIRE -528 208 -544 208
WIRE -496 208 -528 208
WIRE 416 208 416 192
WIRE 64 224 64 160
WIRE 176 224 176 208
WIRE 176 224 64 224
WIRE 192 224 176 224
WIRE 416 224 416 208
WIRE 416 224 336 224
WIRE 544 224 544 192
WIRE 544 224 416 224
WIRE 416 240 416 224
WIRE -448 256 -448 144
WIRE 64 256 64 224
WIRE 176 256 176 224
WIRE 416 256 416 240
WIRE 960 256 960 208
WIRE -1392 272 -1392 208
WIRE -528 272 -528 208
WIRE -528 272 -544 272
WIRE 544 272 544 224
WIRE 1136 288 1136 240
WIRE -448 336 -448 320
WIRE -448 336 -544 336
WIRE -112 352 -112 256
WIRE 64 352 64 320
WIRE 64 352 -112 352
WIRE 176 352 64 352
WIRE 416 352 416 336
WIRE 416 352 176 352
WIRE 544 352 544 336
WIRE 544 352 416 352
WIRE 960 368 960 336
WIRE 960 368 768 368
WIRE -112 384 -112 352
WIRE -1136 400 -1408 400
WIRE -896 400 -1136 400
WIRE -528 400 -544 400
WIRE -496 400 -528 400
WIRE -528 464 -528 400
WIRE -528 464 -544 464
WIRE -1408 512 -1408 400
WIRE -800 592 -800 528
WIRE -640 592 -640 528
WIRE -640 592 -800 592
WIRE -624 592 -640 592
WIRE -928 656 -1040 656
WIRE -800 656 -928 656
WIRE -640 656 -800 656
WIRE -448 656 -640 656
WIRE -448 720 -448 656
WIRE -928 736 -928 720
WIRE -928 736 -1040 736
WIRE -800 736 -800 656
WIRE -640 736 -640 656
WIRE -928 752 -928 736
WIRE -448 800 -448 784
WIRE -448 800 -544 800
WIRE -1136 864 -1136 400
WIRE -896 864 -1136 864
WIRE -528 864 -544 864
WIRE -496 864 -528 864
WIRE -448 912 -448 800
WIRE -528 928 -528 864
WIRE -528 928 -544 928
WIRE -448 992 -448 976
WIRE -448 992 -544 992
WIRE -1184 1056 -1184 208
WIRE -896 1056 -1184 1056
WIRE -528 1056 -544 1056
WIRE -496 1056 -528 1056
WIRE -528 1120 -528 1056
WIRE -528 1120 -544 1120
WIRE -800 1248 -800 1184
WIRE -640 1248 -640 1184
WIRE -640 1248 -800 1248
WIRE -624 1248 -640 1248
FLAG -1392 352 0
FLAG -1408 592 0
FLAG -112 384 0
FLAG 768 96 +vo
IOPIN 768 96 In
FLAG 768 368 -vo
IOPIN 768 368 In
FLAG 336 224 -vo
IOPIN 336 224 Out
FLAG 192 224 +vo
IOPIN 192 224 Out
FLAG -624 592 0
FLAG -928 96 0
FLAG -496 208 A1
IOPIN -496 208 Out
FLAG -496 400 A2
IOPIN -496 400 Out
FLAG -624 1248 0
FLAG -928 752 0
FLAG -496 864 B1
IOPIN -496 864 Out
FLAG -496 1056 B2
IOPIN -496 1056 Out
FLAG 128 192 A1
IOPIN 128 192 In
FLAG 128 336 A2
IOPIN 128 336 In
FLAG 352 192 B1
IOPIN 352 192 In
FLAG 368 320 B2
IOPIN 368 320 In
FLAG -448 336 +vo
IOPIN -448 336 Out
FLAG -448 992 -vo
IOPIN -448 992 Out
FLAG 1136 160 +sig
IOPIN 1136 160 Out
FLAG 1136 288 0
SYMBOL diode 80 320 R180
WINDOW 0 24 64 Left 2
WINDOW 3 24 0 Left 2
SYMATTR InstName D1
SYMBOL diode 560 336 R180
WINDOW 0 24 64 Left 2
WINDOW 3 24 0 Left 2
SYMATTR InstName D2
SYMBOL diode 80 160 R180
WINDOW 0 24 64 Left 2
WINDOW 3 24 0 Left 2
SYMATTR InstName D3
SYMBOL diode 560 192 R180
WINDOW 0 24 64 Left 2
WINDOW 3 24 0 Left 2
SYMATTR InstName D4
SYMBOL voltage -112 160 R0
WINDOW 123 0 0 Left 0
WINDOW 39 0 0 Left 0
SYMATTR InstName V1
SYMATTR Value 12
SYMBOL voltage -1392 256 R0
WINDOW 123 0 0 Left 0
WINDOW 39 0 0 Left 0
SYMATTR InstName V2
SYMATTR Value PULSE(0 20 0 0 0 0.0001 0.0004)
SYMBOL voltage -1408 496 R0
WINDOW 123 0 0 Left 0
WINDOW 39 0 0 Left 0
SYMATTR InstName V3
SYMATTR Value PULSE(0 20 0.0002 0 0 0.0001 0.0004)
SYMBOL nmos 128 112 R0
SYMATTR InstName M1
SYMATTR Value IRFZ44N
SYMBOL nmos 368 112 R0
SYMATTR InstName M2
SYMATTR Value IRFZ44N
SYMBOL nmos 368 240 R0
SYMATTR InstName M3
SYMATTR Value IRFZ44N
SYMBOL nmos 128 256 R0
SYMATTR InstName M4
SYMATTR Value IRFZ44N
SYMBOL res 944 80 R90
WINDOW 0 0 56 VBottom 2
WINDOW 3 32 56 VTop 2
SYMATTR InstName R1
SYMATTR Value 3
SYMBOL ind2 944 112 R0
SYMATTR InstName L1
SYMATTR Value 1.3m
SYMATTR Type ind
SYMBOL ind2 976 352 R180
WINDOW 0 36 80 Left 2
WINDOW 3 36 40 Left 2
SYMATTR InstName L2
SYMATTR Value 1.2m
SYMATTR Type ind
SYMBOL PowerProducts\\LT1162 -720 288 R0
SYMATTR InstName U1
SYMBOL voltage -1040 -16 R0
WINDOW 123 0 0 Left 0
WINDOW 39 0 0 Left 0
SYMATTR InstName V5
SYMATTR Value 12
SYMBOL diode -464 64 R0
SYMATTR InstName D5
SYMATTR Value 1N4148
SYMBOL cap -464 256 R0
SYMATTR InstName C1
SYMATTR Value 1µ
SYMBOL cap -944 0 R0
SYMATTR InstName C2
SYMATTR Value 10µ
SYMBOL PowerProducts\\LT1162 -720 944 R0
SYMATTR InstName U2
SYMBOL voltage -1040 640 R0
WINDOW 123 0 0 Left 0
WINDOW 39 0 0 Left 0
SYMATTR InstName V4
SYMATTR Value 12
SYMBOL diode -464 720 R0
SYMATTR InstName D6
SYMATTR Value 1N4148
SYMBOL cap -464 912 R0
SYMATTR InstName C3
SYMATTR Value 1µ
SYMBOL cap -944 656 R0
SYMATTR InstName C4
SYMATTR Value 10µ
SYMBOL ind2 1120 144 R0
SYMATTR InstName L3
SYMATTR Value 0.003m
SYMATTR Type ind
TEXT 248 48 Left 2 !.tran 0 0.01 0
TEXT 776 240 Left 2 !K L1 L2 L3 1
